name
  WLViewer          3D                             0

  7  6  0  0  0  0  0  0  0  0999 V2000
   -0.0002   -0.0001    0.0001 Fe  0  0  0  0  0  0  0  0  0  1
    0.2233    0.6815   -1.7809 O   0  0  0  0  0  0  0  0  0  2
   -0.2237   -0.6816    1.7811 O   0  0  0  0  0  0  0  0  0  3
   -0.8915   -1.5480   -0.7041 O   0  0  0  0  0  0  0  0  0  4
   -1.6861    0.9087    0.1362 O   0  0  0  0  0  0  0  0  0  5
    1.6856   -0.9088   -0.1361 O   0  0  0  0  0  0  0  0  0  6
    0.8910    1.5479    0.7043 O   0  0  0  0  0  0  0  0  0  7
  1  5  1  0  0  0
  1  6  1  0  0  0
  1  7  1  0  0  0
  1  3  1  0  0  0
  1  4  1  0  0  0
  1  2  1  0  0  0
M  END
